*SPEF "ieee 1481-1999"
*DESIGN "user_project_wrapper"
*DATE "11:11:11 Fri 11 11, 1111"
*VENDOR "OpenRCX"
*PROGRAM "Parallel Extraction"
*VERSION "1.0"
*DESIGN_FLOW "NAME_SCOPE LOCAL" "PIN_CAP NONE"
*DIVIDER /
*DELIMITER :
*BUS_DELIMITER []
*T_UNIT 1 NS
*C_UNIT 1 PF
*R_UNIT 1 OHM
*L_UNIT 1 HENRY

*NAME_MAP
*1 io_in[0]
*2 io_in[10]
*3 io_in[11]
*4 io_in[12]
*5 io_in[13]
*6 io_in[14]
*7 io_in[15]
*8 io_in[16]
*9 io_in[17]
*10 io_in[18]
*11 io_in[19]
*12 io_in[1]
*13 io_in[20]
*14 io_in[21]
*15 io_in[22]
*16 io_in[23]
*17 io_in[24]
*18 io_in[25]
*19 io_in[26]
*20 io_in[27]
*21 io_in[28]
*22 io_in[29]
*23 io_in[2]
*24 io_in[30]
*25 io_in[31]
*26 io_in[32]
*27 io_in[33]
*28 io_in[34]
*29 io_in[35]
*30 io_in[36]
*31 io_in[37]
*32 io_in[3]
*33 io_in[4]
*34 io_in[5]
*35 io_in[6]
*36 io_in[7]
*37 io_in[8]
*38 io_in[9]
*39 io_oeb[0]
*40 io_oeb[10]
*41 io_oeb[11]
*42 io_oeb[12]
*43 io_oeb[13]
*44 io_oeb[14]
*45 io_oeb[15]
*46 io_oeb[16]
*47 io_oeb[17]
*48 io_oeb[18]
*49 io_oeb[19]
*50 io_oeb[1]
*51 io_oeb[20]
*52 io_oeb[21]
*53 io_oeb[22]
*54 io_oeb[23]
*55 io_oeb[24]
*56 io_oeb[25]
*57 io_oeb[26]
*58 io_oeb[27]
*59 io_oeb[28]
*60 io_oeb[29]
*61 io_oeb[2]
*62 io_oeb[30]
*63 io_oeb[31]
*64 io_oeb[32]
*65 io_oeb[33]
*66 io_oeb[34]
*67 io_oeb[35]
*68 io_oeb[36]
*69 io_oeb[37]
*70 io_oeb[3]
*71 io_oeb[4]
*72 io_oeb[5]
*73 io_oeb[6]
*74 io_oeb[7]
*75 io_oeb[8]
*76 io_oeb[9]
*77 io_out[0]
*78 io_out[10]
*79 io_out[11]
*80 io_out[12]
*81 io_out[13]
*82 io_out[14]
*83 io_out[15]
*84 io_out[16]
*85 io_out[17]
*86 io_out[18]
*87 io_out[19]
*88 io_out[1]
*89 io_out[20]
*90 io_out[21]
*91 io_out[22]
*92 io_out[23]
*93 io_out[24]
*94 io_out[25]
*95 io_out[26]
*96 io_out[27]
*97 io_out[28]
*98 io_out[29]
*99 io_out[2]
*100 io_out[30]
*101 io_out[31]
*102 io_out[32]
*103 io_out[33]
*104 io_out[34]
*105 io_out[35]
*106 io_out[36]
*107 io_out[37]
*108 io_out[3]
*109 io_out[4]
*110 io_out[5]
*111 io_out[6]
*112 io_out[7]
*113 io_out[8]
*114 io_out[9]
*115 la_data_in[0]
*116 la_data_in[10]
*117 la_data_in[11]
*118 la_data_in[12]
*119 la_data_in[13]
*120 la_data_in[14]
*121 la_data_in[15]
*122 la_data_in[16]
*123 la_data_in[17]
*124 la_data_in[18]
*125 la_data_in[19]
*126 la_data_in[1]
*127 la_data_in[20]
*128 la_data_in[21]
*129 la_data_in[22]
*130 la_data_in[23]
*131 la_data_in[24]
*132 la_data_in[25]
*133 la_data_in[26]
*134 la_data_in[27]
*135 la_data_in[28]
*136 la_data_in[29]
*137 la_data_in[2]
*138 la_data_in[30]
*139 la_data_in[31]
*140 la_data_in[32]
*141 la_data_in[33]
*142 la_data_in[34]
*143 la_data_in[35]
*144 la_data_in[36]
*145 la_data_in[37]
*146 la_data_in[38]
*147 la_data_in[39]
*148 la_data_in[3]
*149 la_data_in[40]
*150 la_data_in[41]
*151 la_data_in[42]
*152 la_data_in[43]
*153 la_data_in[44]
*154 la_data_in[45]
*155 la_data_in[46]
*156 la_data_in[47]
*157 la_data_in[48]
*158 la_data_in[49]
*159 la_data_in[4]
*160 la_data_in[50]
*161 la_data_in[51]
*162 la_data_in[52]
*163 la_data_in[53]
*164 la_data_in[54]
*165 la_data_in[55]
*166 la_data_in[56]
*167 la_data_in[57]
*168 la_data_in[58]
*169 la_data_in[59]
*170 la_data_in[5]
*171 la_data_in[60]
*172 la_data_in[61]
*173 la_data_in[62]
*174 la_data_in[63]
*175 la_data_in[6]
*176 la_data_in[7]
*177 la_data_in[8]
*178 la_data_in[9]
*179 la_data_out[0]
*180 la_data_out[10]
*181 la_data_out[11]
*182 la_data_out[12]
*183 la_data_out[13]
*184 la_data_out[14]
*185 la_data_out[15]
*186 la_data_out[16]
*187 la_data_out[17]
*188 la_data_out[18]
*189 la_data_out[19]
*190 la_data_out[1]
*191 la_data_out[20]
*192 la_data_out[21]
*193 la_data_out[22]
*194 la_data_out[23]
*195 la_data_out[24]
*196 la_data_out[25]
*197 la_data_out[26]
*198 la_data_out[27]
*199 la_data_out[28]
*200 la_data_out[29]
*201 la_data_out[2]
*202 la_data_out[30]
*203 la_data_out[31]
*204 la_data_out[32]
*205 la_data_out[33]
*206 la_data_out[34]
*207 la_data_out[35]
*208 la_data_out[36]
*209 la_data_out[37]
*210 la_data_out[38]
*211 la_data_out[39]
*212 la_data_out[3]
*213 la_data_out[40]
*214 la_data_out[41]
*215 la_data_out[42]
*216 la_data_out[43]
*217 la_data_out[44]
*218 la_data_out[45]
*219 la_data_out[46]
*220 la_data_out[47]
*221 la_data_out[48]
*222 la_data_out[49]
*223 la_data_out[4]
*224 la_data_out[50]
*225 la_data_out[51]
*226 la_data_out[52]
*227 la_data_out[53]
*228 la_data_out[54]
*229 la_data_out[55]
*230 la_data_out[56]
*231 la_data_out[57]
*232 la_data_out[58]
*233 la_data_out[59]
*234 la_data_out[5]
*235 la_data_out[60]
*236 la_data_out[61]
*237 la_data_out[62]
*238 la_data_out[63]
*239 la_data_out[6]
*240 la_data_out[7]
*241 la_data_out[8]
*242 la_data_out[9]
*243 la_oenb[0]
*244 la_oenb[10]
*245 la_oenb[11]
*246 la_oenb[12]
*247 la_oenb[13]
*248 la_oenb[14]
*249 la_oenb[15]
*250 la_oenb[16]
*251 la_oenb[17]
*252 la_oenb[18]
*253 la_oenb[19]
*254 la_oenb[1]
*255 la_oenb[20]
*256 la_oenb[21]
*257 la_oenb[22]
*258 la_oenb[23]
*259 la_oenb[24]
*260 la_oenb[25]
*261 la_oenb[26]
*262 la_oenb[27]
*263 la_oenb[28]
*264 la_oenb[29]
*265 la_oenb[2]
*266 la_oenb[30]
*267 la_oenb[31]
*268 la_oenb[32]
*269 la_oenb[33]
*270 la_oenb[34]
*271 la_oenb[35]
*272 la_oenb[36]
*273 la_oenb[37]
*274 la_oenb[38]
*275 la_oenb[39]
*276 la_oenb[3]
*277 la_oenb[40]
*278 la_oenb[41]
*279 la_oenb[42]
*280 la_oenb[43]
*281 la_oenb[44]
*282 la_oenb[45]
*283 la_oenb[46]
*284 la_oenb[47]
*285 la_oenb[48]
*286 la_oenb[49]
*287 la_oenb[4]
*288 la_oenb[50]
*289 la_oenb[51]
*290 la_oenb[52]
*291 la_oenb[53]
*292 la_oenb[54]
*293 la_oenb[55]
*294 la_oenb[56]
*295 la_oenb[57]
*296 la_oenb[58]
*297 la_oenb[59]
*298 la_oenb[5]
*299 la_oenb[60]
*300 la_oenb[61]
*301 la_oenb[62]
*302 la_oenb[63]
*303 la_oenb[6]
*304 la_oenb[7]
*305 la_oenb[8]
*306 la_oenb[9]
*307 user_clock2
*308 user_irq[0]
*309 user_irq[1]
*310 user_irq[2]
*313 wb_clk_i
*314 wb_rst_i
*315 wbs_ack_o
*316 wbs_adr_i[0]
*317 wbs_adr_i[10]
*318 wbs_adr_i[11]
*319 wbs_adr_i[12]
*320 wbs_adr_i[13]
*321 wbs_adr_i[14]
*322 wbs_adr_i[15]
*323 wbs_adr_i[16]
*324 wbs_adr_i[17]
*325 wbs_adr_i[18]
*326 wbs_adr_i[19]
*327 wbs_adr_i[1]
*328 wbs_adr_i[20]
*329 wbs_adr_i[21]
*330 wbs_adr_i[22]
*331 wbs_adr_i[23]
*332 wbs_adr_i[24]
*333 wbs_adr_i[25]
*334 wbs_adr_i[26]
*335 wbs_adr_i[27]
*336 wbs_adr_i[28]
*337 wbs_adr_i[29]
*338 wbs_adr_i[2]
*339 wbs_adr_i[30]
*340 wbs_adr_i[31]
*341 wbs_adr_i[3]
*342 wbs_adr_i[4]
*343 wbs_adr_i[5]
*344 wbs_adr_i[6]
*345 wbs_adr_i[7]
*346 wbs_adr_i[8]
*347 wbs_adr_i[9]
*348 wbs_cyc_i
*349 wbs_dat_i[0]
*350 wbs_dat_i[10]
*351 wbs_dat_i[11]
*352 wbs_dat_i[12]
*353 wbs_dat_i[13]
*354 wbs_dat_i[14]
*355 wbs_dat_i[15]
*356 wbs_dat_i[16]
*357 wbs_dat_i[17]
*358 wbs_dat_i[18]
*359 wbs_dat_i[19]
*360 wbs_dat_i[1]
*361 wbs_dat_i[20]
*362 wbs_dat_i[21]
*363 wbs_dat_i[22]
*364 wbs_dat_i[23]
*365 wbs_dat_i[24]
*366 wbs_dat_i[25]
*367 wbs_dat_i[26]
*368 wbs_dat_i[27]
*369 wbs_dat_i[28]
*370 wbs_dat_i[29]
*371 wbs_dat_i[2]
*372 wbs_dat_i[30]
*373 wbs_dat_i[31]
*374 wbs_dat_i[3]
*375 wbs_dat_i[4]
*376 wbs_dat_i[5]
*377 wbs_dat_i[6]
*378 wbs_dat_i[7]
*379 wbs_dat_i[8]
*380 wbs_dat_i[9]
*381 wbs_dat_o[0]
*382 wbs_dat_o[10]
*383 wbs_dat_o[11]
*384 wbs_dat_o[12]
*385 wbs_dat_o[13]
*386 wbs_dat_o[14]
*387 wbs_dat_o[15]
*388 wbs_dat_o[16]
*389 wbs_dat_o[17]
*390 wbs_dat_o[18]
*391 wbs_dat_o[19]
*392 wbs_dat_o[1]
*393 wbs_dat_o[20]
*394 wbs_dat_o[21]
*395 wbs_dat_o[22]
*396 wbs_dat_o[23]
*397 wbs_dat_o[24]
*398 wbs_dat_o[25]
*399 wbs_dat_o[26]
*400 wbs_dat_o[27]
*401 wbs_dat_o[28]
*402 wbs_dat_o[29]
*403 wbs_dat_o[2]
*404 wbs_dat_o[30]
*405 wbs_dat_o[31]
*406 wbs_dat_o[3]
*407 wbs_dat_o[4]
*408 wbs_dat_o[5]
*409 wbs_dat_o[6]
*410 wbs_dat_o[7]
*411 wbs_dat_o[8]
*412 wbs_dat_o[9]
*413 wbs_sel_i[0]
*414 wbs_sel_i[1]
*415 wbs_sel_i[2]
*416 wbs_sel_i[3]
*417 wbs_stb_i
*418 wbs_we_i
*419 i_Rift2Wrap

*PORTS
io_in[0] I
io_in[10] I
io_in[11] I
io_in[12] I
io_in[13] I
io_in[14] I
io_in[15] I
io_in[16] I
io_in[17] I
io_in[18] I
io_in[19] I
io_in[1] I
io_in[20] I
io_in[21] I
io_in[22] I
io_in[23] I
io_in[24] I
io_in[25] I
io_in[26] I
io_in[27] I
io_in[28] I
io_in[29] I
io_in[2] I
io_in[30] I
io_in[31] I
io_in[32] I
io_in[33] I
io_in[34] I
io_in[35] I
io_in[36] I
io_in[37] I
io_in[3] I
io_in[4] I
io_in[5] I
io_in[6] I
io_in[7] I
io_in[8] I
io_in[9] I
io_oeb[0] O
io_oeb[10] O
io_oeb[11] O
io_oeb[12] O
io_oeb[13] O
io_oeb[14] O
io_oeb[15] O
io_oeb[16] O
io_oeb[17] O
io_oeb[18] O
io_oeb[19] O
io_oeb[1] O
io_oeb[20] O
io_oeb[21] O
io_oeb[22] O
io_oeb[23] O
io_oeb[24] O
io_oeb[25] O
io_oeb[26] O
io_oeb[27] O
io_oeb[28] O
io_oeb[29] O
io_oeb[2] O
io_oeb[30] O
io_oeb[31] O
io_oeb[32] O
io_oeb[33] O
io_oeb[34] O
io_oeb[35] O
io_oeb[36] O
io_oeb[37] O
io_oeb[3] O
io_oeb[4] O
io_oeb[5] O
io_oeb[6] O
io_oeb[7] O
io_oeb[8] O
io_oeb[9] O
io_out[0] O
io_out[10] O
io_out[11] O
io_out[12] O
io_out[13] O
io_out[14] O
io_out[15] O
io_out[16] O
io_out[17] O
io_out[18] O
io_out[19] O
io_out[1] O
io_out[20] O
io_out[21] O
io_out[22] O
io_out[23] O
io_out[24] O
io_out[25] O
io_out[26] O
io_out[27] O
io_out[28] O
io_out[29] O
io_out[2] O
io_out[30] O
io_out[31] O
io_out[32] O
io_out[33] O
io_out[34] O
io_out[35] O
io_out[36] O
io_out[37] O
io_out[3] O
io_out[4] O
io_out[5] O
io_out[6] O
io_out[7] O
io_out[8] O
io_out[9] O
la_data_in[0] I
la_data_in[10] I
la_data_in[11] I
la_data_in[12] I
la_data_in[13] I
la_data_in[14] I
la_data_in[15] I
la_data_in[16] I
la_data_in[17] I
la_data_in[18] I
la_data_in[19] I
la_data_in[1] I
la_data_in[20] I
la_data_in[21] I
la_data_in[22] I
la_data_in[23] I
la_data_in[24] I
la_data_in[25] I
la_data_in[26] I
la_data_in[27] I
la_data_in[28] I
la_data_in[29] I
la_data_in[2] I
la_data_in[30] I
la_data_in[31] I
la_data_in[32] I
la_data_in[33] I
la_data_in[34] I
la_data_in[35] I
la_data_in[36] I
la_data_in[37] I
la_data_in[38] I
la_data_in[39] I
la_data_in[3] I
la_data_in[40] I
la_data_in[41] I
la_data_in[42] I
la_data_in[43] I
la_data_in[44] I
la_data_in[45] I
la_data_in[46] I
la_data_in[47] I
la_data_in[48] I
la_data_in[49] I
la_data_in[4] I
la_data_in[50] I
la_data_in[51] I
la_data_in[52] I
la_data_in[53] I
la_data_in[54] I
la_data_in[55] I
la_data_in[56] I
la_data_in[57] I
la_data_in[58] I
la_data_in[59] I
la_data_in[5] I
la_data_in[60] I
la_data_in[61] I
la_data_in[62] I
la_data_in[63] I
la_data_in[6] I
la_data_in[7] I
la_data_in[8] I
la_data_in[9] I
la_data_out[0] O
la_data_out[10] O
la_data_out[11] O
la_data_out[12] O
la_data_out[13] O
la_data_out[14] O
la_data_out[15] O
la_data_out[16] O
la_data_out[17] O
la_data_out[18] O
la_data_out[19] O
la_data_out[1] O
la_data_out[20] O
la_data_out[21] O
la_data_out[22] O
la_data_out[23] O
la_data_out[24] O
la_data_out[25] O
la_data_out[26] O
la_data_out[27] O
la_data_out[28] O
la_data_out[29] O
la_data_out[2] O
la_data_out[30] O
la_data_out[31] O
la_data_out[32] O
la_data_out[33] O
la_data_out[34] O
la_data_out[35] O
la_data_out[36] O
la_data_out[37] O
la_data_out[38] O
la_data_out[39] O
la_data_out[3] O
la_data_out[40] O
la_data_out[41] O
la_data_out[42] O
la_data_out[43] O
la_data_out[44] O
la_data_out[45] O
la_data_out[46] O
la_data_out[47] O
la_data_out[48] O
la_data_out[49] O
la_data_out[4] O
la_data_out[50] O
la_data_out[51] O
la_data_out[52] O
la_data_out[53] O
la_data_out[54] O
la_data_out[55] O
la_data_out[56] O
la_data_out[57] O
la_data_out[58] O
la_data_out[59] O
la_data_out[5] O
la_data_out[60] O
la_data_out[61] O
la_data_out[62] O
la_data_out[63] O
la_data_out[6] O
la_data_out[7] O
la_data_out[8] O
la_data_out[9] O
la_oenb[0] I
la_oenb[10] I
la_oenb[11] I
la_oenb[12] I
la_oenb[13] I
la_oenb[14] I
la_oenb[15] I
la_oenb[16] I
la_oenb[17] I
la_oenb[18] I
la_oenb[19] I
la_oenb[1] I
la_oenb[20] I
la_oenb[21] I
la_oenb[22] I
la_oenb[23] I
la_oenb[24] I
la_oenb[25] I
la_oenb[26] I
la_oenb[27] I
la_oenb[28] I
la_oenb[29] I
la_oenb[2] I
la_oenb[30] I
la_oenb[31] I
la_oenb[32] I
la_oenb[33] I
la_oenb[34] I
la_oenb[35] I
la_oenb[36] I
la_oenb[37] I
la_oenb[38] I
la_oenb[39] I
la_oenb[3] I
la_oenb[40] I
la_oenb[41] I
la_oenb[42] I
la_oenb[43] I
la_oenb[44] I
la_oenb[45] I
la_oenb[46] I
la_oenb[47] I
la_oenb[48] I
la_oenb[49] I
la_oenb[4] I
la_oenb[50] I
la_oenb[51] I
la_oenb[52] I
la_oenb[53] I
la_oenb[54] I
la_oenb[55] I
la_oenb[56] I
la_oenb[57] I
la_oenb[58] I
la_oenb[59] I
la_oenb[5] I
la_oenb[60] I
la_oenb[61] I
la_oenb[62] I
la_oenb[63] I
la_oenb[6] I
la_oenb[7] I
la_oenb[8] I
la_oenb[9] I
user_clock2 I
user_irq[0] O
user_irq[1] O
user_irq[2] O
wb_clk_i I
wb_rst_i I
wbs_ack_o O
wbs_adr_i[0] I
wbs_adr_i[10] I
wbs_adr_i[11] I
wbs_adr_i[12] I
wbs_adr_i[13] I
wbs_adr_i[14] I
wbs_adr_i[15] I
wbs_adr_i[16] I
wbs_adr_i[17] I
wbs_adr_i[18] I
wbs_adr_i[19] I
wbs_adr_i[1] I
wbs_adr_i[20] I
wbs_adr_i[21] I
wbs_adr_i[22] I
wbs_adr_i[23] I
wbs_adr_i[24] I
wbs_adr_i[25] I
wbs_adr_i[26] I
wbs_adr_i[27] I
wbs_adr_i[28] I
wbs_adr_i[29] I
wbs_adr_i[2] I
wbs_adr_i[30] I
wbs_adr_i[31] I
wbs_adr_i[3] I
wbs_adr_i[4] I
wbs_adr_i[5] I
wbs_adr_i[6] I
wbs_adr_i[7] I
wbs_adr_i[8] I
wbs_adr_i[9] I
wbs_cyc_i I
wbs_dat_i[0] I
wbs_dat_i[10] I
wbs_dat_i[11] I
wbs_dat_i[12] I
wbs_dat_i[13] I
wbs_dat_i[14] I
wbs_dat_i[15] I
wbs_dat_i[16] I
wbs_dat_i[17] I
wbs_dat_i[18] I
wbs_dat_i[19] I
wbs_dat_i[1] I
wbs_dat_i[20] I
wbs_dat_i[21] I
wbs_dat_i[22] I
wbs_dat_i[23] I
wbs_dat_i[24] I
wbs_dat_i[25] I
wbs_dat_i[26] I
wbs_dat_i[27] I
wbs_dat_i[28] I
wbs_dat_i[29] I
wbs_dat_i[2] I
wbs_dat_i[30] I
wbs_dat_i[31] I
wbs_dat_i[3] I
wbs_dat_i[4] I
wbs_dat_i[5] I
wbs_dat_i[6] I
wbs_dat_i[7] I
wbs_dat_i[8] I
wbs_dat_i[9] I
wbs_dat_o[0] O
wbs_dat_o[10] O
wbs_dat_o[11] O
wbs_dat_o[12] O
wbs_dat_o[13] O
wbs_dat_o[14] O
wbs_dat_o[15] O
wbs_dat_o[16] O
wbs_dat_o[17] O
wbs_dat_o[18] O
wbs_dat_o[19] O
wbs_dat_o[1] O
wbs_dat_o[20] O
wbs_dat_o[21] O
wbs_dat_o[22] O
wbs_dat_o[23] O
wbs_dat_o[24] O
wbs_dat_o[25] O
wbs_dat_o[26] O
wbs_dat_o[27] O
wbs_dat_o[28] O
wbs_dat_o[29] O
wbs_dat_o[2] O
wbs_dat_o[30] O
wbs_dat_o[31] O
wbs_dat_o[3] O
wbs_dat_o[4] O
wbs_dat_o[5] O
wbs_dat_o[6] O
wbs_dat_o[7] O
wbs_dat_o[8] O
wbs_dat_o[9] O
wbs_sel_i[0] I
wbs_sel_i[1] I
wbs_sel_i[2] I
wbs_sel_i[3] I
wbs_stb_i I
wbs_we_i I

*D_NET *1 0.00623305
*CONN
*P io_in[0] I
*I *419:io_in[0] I *D rift2Wrap
*CAP
1 io_in[0] 0.00311653
2 *419:io_in[0] 0.00311653
*RES
1 io_in[0] *419:io_in[0] 33.75 
*END

*D_NET *2 0.0127932
*CONN
*P io_in[10] I
*I *419:io_in[10] I *D rift2Wrap
*CAP
1 io_in[10] 0.00429712
2 *419:io_in[10] 0.00429712
3 *419:io_in[10] *76:14 0.00084803
4 *419:io_in[10] *78:14 0.0033509
*RES
1 io_in[10] *419:io_in[10] 49.05 
*END

*D_NET *3 0.00853839
*CONN
*P io_in[11] I
*I *419:io_in[11] I *D rift2Wrap
*CAP
1 io_in[11] 0.00412429
2 *419:io_in[11] 0.00412429
3 *419:io_in[11] io_oeb[10] 0
4 *419:io_in[11] io_out[11] 0.000289812
*RES
1 io_in[11] *419:io_in[11] 42.21 
*END

*D_NET *4 0.00664672
*CONN
*P io_in[12] I
*I *419:io_in[12] I *D rift2Wrap
*CAP
1 io_in[12] 0.00332336
2 *419:io_in[12] 0.00332336
*RES
1 io_in[12] *419:io_in[12] 35.37 
*END

*D_NET *5 0.00484555
*CONN
*P io_in[13] I
*I *419:io_in[13] I *D rift2Wrap
*CAP
1 io_in[13] 0.00242278
2 *419:io_in[13] 0.00242278
*RES
1 io_in[13] *419:io_in[13] 28.53 
*END

*D_NET *6 0.00396362
*CONN
*P io_in[14] I
*I *419:io_in[14] I *D rift2Wrap
*CAP
1 io_in[14] 0.00198181
2 *419:io_in[14] 0.00198181
*RES
1 io_in[14] *419:io_in[14] 14.67 
*END

*D_NET *7 0.0114697
*CONN
*P io_in[15] I
*I *419:io_in[15] I *D rift2Wrap
*CAP
1 io_in[15] 0.00546149
2 *419:io_in[15] 0
3 *7:8 0.00546149
4 *7:8 io_out[15] 0.000546739
*RES
1 io_in[15] *7:8 49.995 
2 *7:8 *419:io_in[15] 4.5 
*END

*D_NET *8 0.0102653
*CONN
*P io_in[16] I
*I *419:io_in[16] I *D rift2Wrap
*CAP
1 io_in[16] 0.00513266
2 *419:io_in[16] 0
3 *8:8 0.00513266
*RES
1 io_in[16] *8:8 46.575 
2 *8:8 *419:io_in[16] 4.5 
*END

*D_NET *9 0.00944613
*CONN
*P io_in[17] I
*I *419:io_in[17] I *D rift2Wrap
*CAP
1 io_in[17] 0.00472306
2 *419:io_in[17] 0.00472306
*RES
1 io_in[17] *419:io_in[17] 47.655 
*END

*D_NET *10 0.00862693
*CONN
*P io_in[18] I
*I *419:io_in[18] I *D rift2Wrap
*CAP
1 io_in[18] 0.00431347
2 *419:io_in[18] 0.00431347
*RES
1 io_in[18] *419:io_in[18] 44.235 
*END

*D_NET *11 0.00780774
*CONN
*P io_in[19] I
*I *419:io_in[19] I *D rift2Wrap
*CAP
1 io_in[19] 0.00390387
2 *419:io_in[19] 0.00390387
*RES
1 io_in[19] *419:io_in[19] 40.815 
*END

*D_NET *12 0.00327677
*CONN
*P io_in[1] I
*I *419:io_in[1] I *D rift2Wrap
*CAP
1 io_in[1] 0.00163839
2 *419:io_in[1] 0.00163839
*RES
1 io_in[1] *419:io_in[1] 13.77 
*END

*D_NET *13 0.00698855
*CONN
*P io_in[20] I
*I *419:io_in[20] I *D rift2Wrap
*CAP
1 io_in[20] 0.00349427
2 *419:io_in[20] 0.00349427
*RES
1 io_in[20] *419:io_in[20] 37.395 
*END

*D_NET *14 0.00600072
*CONN
*P io_in[21] I
*I *419:io_in[21] I *D rift2Wrap
*CAP
1 io_in[21] 0.00300036
2 *419:io_in[21] 0.00300036
*RES
1 io_in[21] *419:io_in[21] 33.12 
*END

*D_NET *15 0.00518153
*CONN
*P io_in[22] I
*I *419:io_in[22] I *D rift2Wrap
*CAP
1 io_in[22] 0.00259076
2 *419:io_in[22] 0.00259076
*RES
1 io_in[22] *419:io_in[22] 29.7 
*END

*D_NET *16 0.00430115
*CONN
*P io_in[23] I
*I *419:io_in[23] I *D rift2Wrap
*CAP
1 io_in[23] 0.00215058
2 *419:io_in[23] 0.00215058
*RES
1 io_in[23] *419:io_in[23] 26.235 
*END

*D_NET *17 0.00918821
*CONN
*P io_in[24] I
*I *419:io_in[24] I *D rift2Wrap
*CAP
1 io_in[24] 0.00457971
2 *419:io_in[24] 0.00457971
3 *419:io_in[24] io_out[24] 2.87856e-05
*RES
1 io_in[24] *419:io_in[24] 43.38 
*END

*D_NET *18 0.00960504
*CONN
*P io_in[25] I
*I *419:io_in[25] I *D rift2Wrap
*CAP
1 io_in[25] 0.00416521
2 *419:io_in[25] 0.00063731
3 *18:16 0.00480252
*RES
1 io_in[25] *18:16 49.275 
2 *18:16 *419:io_in[25] 4.365 
*END

*D_NET *19 0.00988082
*CONN
*P io_in[26] I
*I *419:io_in[26] I *D rift2Wrap
*CAP
1 io_in[26] 0.004454
2 *419:io_in[26] 0.000486407
3 *19:14 0.00494041
*RES
1 io_in[26] *19:14 47.115 
2 *19:14 *419:io_in[26] 7.605 
*END

*D_NET *20 0.0104522
*CONN
*P io_in[27] I
*I *419:io_in[27] I *D rift2Wrap
*CAP
1 io_in[27] 0.00471811
2 *419:io_in[27] 0.000507964
3 *20:14 0.00522608
*RES
1 io_in[27] *20:14 48.015 
2 *20:14 *419:io_in[27] 7.785 
*END

*D_NET *21 0.010716
*CONN
*P io_in[28] I
*I *419:io_in[28] I *D rift2Wrap
*CAP
1 io_in[28] 0.00487162
2 *419:io_in[28] 0.000486407
3 *21:14 0.00535802
*RES
1 io_in[28] *21:14 49.275 
2 *21:14 *419:io_in[28] 7.605 
*END

*D_NET *22 0.0118296
*CONN
*P io_in[29] I
*I *419:io_in[29] I *D rift2Wrap
*CAP
1 io_in[29] 0.00501718
2 *419:io_in[29] 0.00501718
3 *419:io_in[29] *98:16 0.00179523
*RES
1 io_in[29] *419:io_in[29] 48.78 
*END

*D_NET *23 0.00609517
*CONN
*P io_in[2] I
*I *419:io_in[2] I *D rift2Wrap
*CAP
1 io_in[2] 0.00304758
2 *419:io_in[2] 0.00304758
*RES
1 io_in[2] *419:io_in[2] 33.21 
*END

*D_NET *24 0.0123503
*CONN
*P io_in[30] I
*I *419:io_in[30] I *D rift2Wrap
*CAP
1 io_in[30] 0.00507387
2 *419:io_in[30] 0.00507387
3 *419:io_in[30] io_out[30] 0.00220257
*RES
1 io_in[30] *419:io_in[30] 49.86 
*END

*D_NET *25 0.011182
*CONN
*P io_in[31] I
*I *419:io_in[31] I *D rift2Wrap
*CAP
1 io_in[31] 0.00469941
2 *419:io_in[31] 0.000891602
3 *25:10 0.00559101
*RES
1 io_in[31] *25:10 44.595 
2 *25:10 *419:io_in[31] 6.345 
*END

*D_NET *26 0.0114578
*CONN
*P io_in[32] I
*I *419:io_in[32] I *D rift2Wrap
*CAP
1 io_in[32] 0.0048373
2 *419:io_in[32] 0.000891602
3 *26:10 0.0057289
*RES
1 io_in[32] *26:10 45.675 
2 *26:10 *419:io_in[32] 6.345 
*END

*D_NET *27 0.0140429
*CONN
*P io_in[33] I
*I *419:io_in[33] I *D rift2Wrap
*CAP
1 io_in[33] 0.00438927
2 *419:io_in[33] 0.000891617
3 *27:10 0.00528089
4 *27:10 io_out[33] 0.00348115
*RES
1 io_in[33] *27:10 46.755 
2 *27:10 *419:io_in[33] 6.345 
*END

*D_NET *28 0.0146158
*CONN
*P io_in[34] I
*I *419:io_in[34] I *D rift2Wrap
*CAP
1 io_in[34] 0.00446074
2 *419:io_in[34] 0.000891617
3 *28:10 0.00535236
4 *28:10 io_out[34] 0.00391111
*RES
1 io_in[34] *28:10 47.835 
2 *28:10 *419:io_in[34] 6.345 
*END

*D_NET *29 0.0155467
*CONN
*P io_in[35] I
*I *419:io_in[35] I *D rift2Wrap
*CAP
1 io_in[35] 0.00454032
2 *419:io_in[35] 0.0010573
3 *29:10 0.00559763
4 *29:10 io_out[35] 0.00435146
*RES
1 io_in[35] *29:10 48.915 
2 *29:10 *419:io_in[35] 6.345 
*END

*D_NET *30 0.00802765
*CONN
*P io_in[36] I
*I *419:io_in[36] I *D rift2Wrap
*CAP
1 io_in[36] 0.00401383
2 *419:io_in[36] 0.00401383
*RES
1 io_in[36] *419:io_in[36] 39.06 
*END

*D_NET *31 0.00370502
*CONN
*P io_in[37] I
*I *419:io_in[37] I *D rift2Wrap
*CAP
1 io_in[37] 0.00185251
2 *419:io_in[37] 0.00185251
*RES
1 io_in[37] *419:io_in[37] 13.77 
*END

*D_NET *32 0.00977696
*CONN
*P io_in[3] I
*I *419:io_in[3] I *D rift2Wrap
*CAP
1 io_in[3] 0.00419994
2 *419:io_in[3] 0.00419994
3 *419:io_in[3] io_out[3] 0.00137708
*RES
1 io_in[3] *419:io_in[3] 44.01 
*END

*D_NET *33 0.0147482
*CONN
*P io_in[4] I
*I *419:io_in[4] I *D rift2Wrap
*CAP
1 io_in[4] 0.00401294
2 *419:io_in[4] 0.000664999
3 *33:10 0.00467794
4 *33:10 *70:14 0.00420329
5 *33:10 *109:12 0.00118898
*RES
1 io_in[4] *33:10 49.275 
2 *33:10 *419:io_in[4] 5.535 
*END

*D_NET *34 0.0223146
*CONN
*P io_in[5] I
*I *419:io_in[5] I *D rift2Wrap
*CAP
1 io_in[5] 0.000966792
2 *419:io_in[5] 0.000725271
3 *34:10 0.00367565
4 *34:7 0.00391717
5 *34:10 *71:12 0.0031311
6 *34:10 *109:12 3.98162e-05
7 *34:10 *110:12 0.0098588
*RES
1 io_in[5] *34:7 12.465 
2 *34:7 *34:10 47.25 
3 *34:10 *419:io_in[5] 5.895 
*END

*D_NET *35 0.0302943
*CONN
*P io_in[6] I
*I *419:io_in[6] I *D rift2Wrap
*CAP
1 io_in[6] 0.000966792
2 *419:io_in[6] 0.000742459
3 *35:8 0.00434056
4 *35:7 0.0045649
5 *35:8 *72:12 0.00115681
6 *35:8 *110:12 0.00442341
7 *35:8 *111:12 0.0140994
*RES
1 io_in[6] *35:7 12.465 
2 *35:7 *35:8 53.73 
3 *35:8 *419:io_in[6] 10.395 
*END

*D_NET *36 0.025271
*CONN
*P io_in[7] I
*I *419:io_in[7] I *D rift2Wrap
*CAP
1 io_in[7] 0.000966792
2 *419:io_in[7] 0.000742459
3 *36:8 0.0039513
4 *36:7 0.00417564
5 *36:8 *73:12 0.00237778
6 *36:8 *111:12 0.00163808
7 *36:8 *112:12 0.011419
*RES
1 io_in[7] *36:7 12.465 
2 *36:7 *36:8 46.71 
3 *36:8 *419:io_in[7] 10.395 
*END

*D_NET *37 0.0207869
*CONN
*P io_in[8] I
*I *419:io_in[8] I *D rift2Wrap
*CAP
1 io_in[8] 0.000966792
2 *419:io_in[8] 0.000129346
3 *37:13 0.00349316
4 *37:7 0.00433061
5 *37:13 *74:12 0.00313216
6 *37:13 *113:14 0.00873485
*RES
1 io_in[8] *37:7 12.465 
2 *37:7 *37:13 49.14 
3 *37:13 *419:io_in[8] 1.125 
*END

*D_NET *38 0.017385
*CONN
*P io_in[9] I
*I *419:io_in[9] I *D rift2Wrap
*CAP
1 io_in[9] 0.00389783
2 *419:io_in[9] 0.000725271
3 *38:10 0.0046231
4 *38:10 *75:12 0.00207764
5 *38:10 *114:12 0.00606118
*RES
1 io_in[9] *38:10 49.995 
2 *38:10 *419:io_in[9] 5.895 
*END

*D_NET *39 0.00433996
*CONN
*P io_oeb[0] O
*I *419:io_oeb[0] O *D rift2Wrap
*CAP
1 io_oeb[0] 0.00216998
2 *419:io_oeb[0] 0.00216998
*RES
1 *419:io_oeb[0] io_oeb[0] 26.55 
*END

*D_NET *40 0.0152995
*CONN
*P io_oeb[10] O
*I *419:io_oeb[10] O *D rift2Wrap
*CAP
1 io_oeb[10] 0.00100991
2 *419:io_oeb[10] 0.00424652
3 *40:14 0.00525643
4 *40:14 *78:14 0.00478662
5 *419:io_in[11] io_oeb[10] 0
*RES
1 *419:io_oeb[10] *40:14 48.105 
2 *40:14 io_oeb[10] 8.325 
*END

*D_NET *41 0.0116455
*CONN
*P io_oeb[11] O
*I *419:io_oeb[11] O *D rift2Wrap
*CAP
1 io_oeb[11] 0.00478657
2 *419:io_oeb[11] 0.00478657
3 io_oeb[11] io_out[11] 0.00207233
*RES
1 *419:io_oeb[11] io_oeb[11] 49.41 
*END

*D_NET *42 0.00847433
*CONN
*P io_oeb[12] O
*I *419:io_oeb[12] O *D rift2Wrap
*CAP
1 io_oeb[12] 0.00423716
2 *419:io_oeb[12] 0.00423716
*RES
1 *419:io_oeb[12] io_oeb[12] 42.57 
*END

*D_NET *43 0.00677369
*CONN
*P io_oeb[13] O
*I *419:io_oeb[13] O *D rift2Wrap
*CAP
1 io_oeb[13] 0.00338685
2 *419:io_oeb[13] 0.00338685
*RES
1 *419:io_oeb[13] io_oeb[13] 35.91 
*END

*D_NET *44 0.00499205
*CONN
*P io_oeb[14] O
*I *419:io_oeb[14] O *D rift2Wrap
*CAP
1 io_oeb[14] 0.00249603
2 *419:io_oeb[14] 0.00249603
*RES
1 *419:io_oeb[14] io_oeb[14] 28.89 
*END

*D_NET *45 0.00625941
*CONN
*P io_oeb[15] O
*I *419:io_oeb[15] O *D rift2Wrap
*CAP
1 io_oeb[15] 0.00312971
2 *419:io_oeb[15] 0.00312971
*RES
1 *419:io_oeb[15] io_oeb[15] 34.2 
*END

*D_NET *46 0.00544022
*CONN
*P io_oeb[16] O
*I *419:io_oeb[16] O *D rift2Wrap
*CAP
1 io_oeb[16] 0.00272011
2 *419:io_oeb[16] 0.00272011
*RES
1 *419:io_oeb[16] io_oeb[16] 30.78 
*END

*D_NET *47 0.00466414
*CONN
*P io_oeb[17] O
*I *419:io_oeb[17] O *D rift2Wrap
*CAP
1 io_oeb[17] 0.00233207
2 *419:io_oeb[17] 0.00233207
*RES
1 *419:io_oeb[17] io_oeb[17] 27.54 
*END

*D_NET *48 0.00397047
*CONN
*P io_oeb[18] O
*I *419:io_oeb[18] O *D rift2Wrap
*CAP
1 io_oeb[18] 0.00198523
2 *419:io_oeb[18] 0.00198523
*RES
1 *419:io_oeb[18] io_oeb[18] 24.795 
*END

*D_NET *49 0.00298264
*CONN
*P io_oeb[19] O
*I *419:io_oeb[19] O *D rift2Wrap
*CAP
1 io_oeb[19] 0.00149132
2 *419:io_oeb[19] 0.00149132
*RES
1 *419:io_oeb[19] io_oeb[19] 20.52 
*END

*D_NET *50 0.00512133
*CONN
*P io_oeb[1] O
*I *419:io_oeb[1] O *D rift2Wrap
*CAP
1 io_oeb[1] 0.00256066
2 *419:io_oeb[1] 0.00256066
*RES
1 *419:io_oeb[1] io_oeb[1] 29.61 
*END

*D_NET *51 0.00204535
*CONN
*P io_oeb[20] O
*I *419:io_oeb[20] O *D rift2Wrap
*CAP
1 io_oeb[20] 0.00102268
2 *419:io_oeb[20] 0.00102268
*RES
1 *419:io_oeb[20] io_oeb[20] 8.01 
*END

*D_NET *52 0.00281018
*CONN
*P io_oeb[21] O
*I *419:io_oeb[21] O *D rift2Wrap
*CAP
1 io_oeb[21] 0.00140509
2 *419:io_oeb[21] 0.00140509
*RES
1 *419:io_oeb[21] io_oeb[21] 19.8 
*END

*D_NET *53 0.00362937
*CONN
*P io_oeb[22] O
*I *419:io_oeb[22] O *D rift2Wrap
*CAP
1 io_oeb[22] 0.00181469
2 *419:io_oeb[22] 0.00181469
*RES
1 *419:io_oeb[22] io_oeb[22] 23.22 
*END

*D_NET *54 0.00444857
*CONN
*P io_oeb[23] O
*I *419:io_oeb[23] O *D rift2Wrap
*CAP
1 io_oeb[23] 0.00222428
2 *419:io_oeb[23] 0.00222428
*RES
1 *419:io_oeb[23] io_oeb[23] 26.64 
*END

*D_NET *55 0.00635516
*CONN
*P io_oeb[24] O
*I *419:io_oeb[24] O *D rift2Wrap
*CAP
1 io_oeb[24] 0.00317758
2 *419:io_oeb[24] 0.00317758
*RES
1 *419:io_oeb[24] io_oeb[24] 32.76 
*END

*D_NET *56 0.00668552
*CONN
*P io_oeb[25] O
*I *419:io_oeb[25] O *D rift2Wrap
*CAP
1 io_oeb[25] 0.00334276
2 *419:io_oeb[25] 0.00334276
*RES
1 *419:io_oeb[25] io_oeb[25] 33.84 
*END

*D_NET *57 0.00692454
*CONN
*P io_oeb[26] O
*I *419:io_oeb[26] O *D rift2Wrap
*CAP
1 io_oeb[26] 0.00346227
2 *419:io_oeb[26] 0.00346227
*RES
1 *419:io_oeb[26] io_oeb[26] 34.74 
*END

*D_NET *58 0.00721123
*CONN
*P io_oeb[27] O
*I *419:io_oeb[27] O *D rift2Wrap
*CAP
1 io_oeb[27] 0.00360562
2 *419:io_oeb[27] 0.00360562
*RES
1 *419:io_oeb[27] io_oeb[27] 35.82 
*END

*D_NET *59 0.00753067
*CONN
*P io_oeb[28] O
*I *419:io_oeb[28] O *D rift2Wrap
*CAP
1 io_oeb[28] 0.00376534
2 *419:io_oeb[28] 0.00376534
*RES
1 *419:io_oeb[28] io_oeb[28] 36.9 
*END

*D_NET *60 0.00775187
*CONN
*P io_oeb[29] O
*I *419:io_oeb[29] O *D rift2Wrap
*CAP
1 io_oeb[29] 0.00387594
2 *419:io_oeb[29] 0.00387594
*RES
1 *419:io_oeb[29] io_oeb[29] 37.98 
*END

*D_NET *61 0.00792277
*CONN
*P io_oeb[2] O
*I *419:io_oeb[2] O *D rift2Wrap
*CAP
1 io_oeb[2] 0.00396138
2 *419:io_oeb[2] 0.00396138
*RES
1 *419:io_oeb[2] io_oeb[2] 40.41 
*END

*D_NET *62 0.00803857
*CONN
*P io_oeb[30] O
*I *419:io_oeb[30] O *D rift2Wrap
*CAP
1 io_oeb[30] 0.00401928
2 *419:io_oeb[30] 0.00401928
*RES
1 *419:io_oeb[30] io_oeb[30] 39.06 
*END

*D_NET *63 0.00867976
*CONN
*P io_oeb[31] O
*I *419:io_oeb[31] O *D rift2Wrap
*CAP
1 io_oeb[31] 0.00433988
2 *419:io_oeb[31] 0.00433988
*RES
1 *419:io_oeb[31] io_oeb[31] 40.14 
*END

*D_NET *64 0.00932036
*CONN
*P io_oeb[32] O
*I *419:io_oeb[32] O *D rift2Wrap
*CAP
1 io_oeb[32] 0.00466018
2 *419:io_oeb[32] 0.00466018
*RES
1 *419:io_oeb[32] io_oeb[32] 41.49 
*END

*D_NET *65 0.00983358
*CONN
*P io_oeb[33] O
*I *419:io_oeb[33] O *D rift2Wrap
*CAP
1 io_oeb[33] 0.00422825
2 *419:io_oeb[33] 0.00422825
3 io_oeb[33] io_out[33] 0.00137707
*RES
1 *419:io_oeb[33] io_oeb[33] 42.3 
*END

*D_NET *66 0.0103692
*CONN
*P io_oeb[34] O
*I *419:io_oeb[34] O *D rift2Wrap
*CAP
1 io_oeb[34] 0.00428299
2 *419:io_oeb[34] 0.00428299
3 io_oeb[34] io_out[34] 0.00180327
*RES
1 *419:io_oeb[34] io_oeb[34] 43.65 
*END

*D_NET *67 0.0112265
*CONN
*P io_oeb[35] O
*I *419:io_oeb[35] O *D rift2Wrap
*CAP
1 io_oeb[35] 0.000852903
2 *419:io_oeb[35] 0.00364564
3 *67:16 0.00449854
4 *67:16 io_out[35] 0.00222946
*RES
1 *419:io_oeb[35] *67:16 47.475 
2 *67:16 io_oeb[35] 6.165 
*END

*D_NET *68 0.00522621
*CONN
*P io_oeb[36] O
*I *419:io_oeb[36] O *D rift2Wrap
*CAP
1 io_oeb[36] 0.00261311
2 *419:io_oeb[36] 0.00261311
*RES
1 *419:io_oeb[36] io_oeb[36] 28.26 
*END

*D_NET *69 0.00596046
*CONN
*P io_oeb[37] O
*I *419:io_oeb[37] O *D rift2Wrap
*CAP
1 io_oeb[37] 0.00298023
2 *419:io_oeb[37] 0.00298023
*RES
1 *419:io_oeb[37] io_oeb[37] 30.96 
*END

*D_NET *70 0.0154421
*CONN
*P io_oeb[3] O
*I *419:io_oeb[3] O *D rift2Wrap
*CAP
1 io_oeb[3] 0.00098835
2 *419:io_oeb[3] 0.00324563
3 *70:14 0.00423398
4 *70:14 io_out[3] 0.00277083
5 *33:10 *70:14 0.00420329
*RES
1 *419:io_oeb[3] *70:14 43.065 
2 *70:14 io_oeb[3] 8.145 
*END

*D_NET *71 0.0160803
*CONN
*P io_oeb[4] O
*I *419:io_oeb[4] O *D rift2Wrap
*CAP
1 io_oeb[4] 0.00104425
2 *419:io_oeb[4] 0.0039578
3 *71:12 0.00500206
4 *71:12 *109:12 0.00145035
5 *71:12 *110:12 0.00149476
6 *34:10 *71:12 0.0031311
*RES
1 *419:io_oeb[4] *71:12 49.185 
2 *71:12 io_oeb[4] 12.825 
*END

*D_NET *72 0.0284136
*CONN
*P io_oeb[5] O
*I *419:io_oeb[5] O *D rift2Wrap
*CAP
1 io_oeb[5] 0.00104425
2 *419:io_oeb[5] 0.000664999
3 *72:12 0.00441234
4 *72:11 0.00403309
5 *72:12 *110:12 0.0112769
6 *72:12 *111:12 0.00582521
7 *35:8 *72:12 0.00115681
*RES
1 *419:io_oeb[5] *72:11 10.035 
2 *72:11 *72:12 50.13 
3 *72:12 io_oeb[5] 12.825 
*END

*D_NET *73 0.0326057
*CONN
*P io_oeb[6] O
*I *419:io_oeb[6] O *D rift2Wrap
*CAP
1 io_oeb[6] 0.00104425
2 *419:io_oeb[6] 0.000664999
3 *73:12 0.00515016
4 *73:11 0.00477091
5 *73:12 *111:12 0.0155238
6 *73:12 *112:12 0.0030738
7 *36:8 *73:12 0.00237778
*RES
1 *419:io_oeb[6] *73:11 10.035 
2 *73:11 *73:12 60.75 
3 *73:12 io_oeb[6] 12.825 
*END

*D_NET *74 0.0275346
*CONN
*P io_oeb[7] O
*I *419:io_oeb[7] O *D rift2Wrap
*CAP
1 io_oeb[7] 0.00104277
2 *419:io_oeb[7] 0.000664999
3 *74:12 0.00492276
4 *74:11 0.004545
5 io_oeb[7] *113:11 5.55927e-06
6 *74:12 *112:12 0.0128468
7 *74:12 *113:14 0.000374584
8 *37:13 *74:12 0.00313216
*RES
1 *419:io_oeb[7] *74:11 10.035 
2 *74:11 *74:12 53.91 
3 *74:12 io_oeb[7] 12.825 
*END

*D_NET *75 0.0232078
*CONN
*P io_oeb[8] O
*I *419:io_oeb[8] O *D rift2Wrap
*CAP
1 io_oeb[8] 0.00102706
2 *419:io_oeb[8] 0.000664999
3 *75:12 0.00482451
4 *75:11 0.00446244